Circuit: * C:\Users\Bruno\Stuff\UTN Local\TC2\TS1\LTSpice\pasa_todo.asc

Direct Newton iteration for .op point succeeded.

Date: Tue Apr 20 20:50:11 2021
Total elapsed time: 0.062 seconds.

tnom = 27
temp = 27
method = trap
totiter = 3
traniter = 0
tranpoints = 0
accept = 0
rejected = 0
matrix size = 10
fillins = 1
solver = Normal
Matrix Compiler1:      27 opcodes
Matrix Compiler2: 884 bytes object code size
